CM Example 1 :	Dipole in free space 	
CM See GetStarted.txt
CM 
CM 
CM 
CM 
CE
GW	1	49	0	0	0	0	0	0.375	0.005	'Wire 1, 9 segments, halve wavelength long.
GW	2	49	-0.1875	0	0	-0.1875	0	0.375	0.005
GW	3	49	0	0.75	0	0	0.75	0.375	0.005
GW	4	49	0.1875	0	0	0.1875	0	0.375	0.005
GE	0
GN	-1
EK
EX	0	1	25	0	1	0	0	'Voltage source (1+j0) at wire 1 segment 5.
FR	0	0	0	0	2400	0
EN
